data_image0
_cell_length_a       15.8745
_cell_length_b       15.8745
_cell_length_c       30
_cell_angle_alpha    90
_cell_angle_beta     90
_cell_angle_gamma    60

_symmetry_space_group_name_H-M    "P 1"
_symmetry_int_tables_number       1

loop_
  _symmetry_equiv_pos_as_xyz
  'x, y, z'

loop_
  _atom_site_label
  _atom_site_occupancy
  _atom_site_Cartn_x
  _atom_site_Cartn_y
  _atom_site_Cartn_z
  _atom_site_thermal_displace_type
  _atom_site_B_iso_or_equiv
  _atom_site_type_symbol
  Sb1      1.0000 9.07115  10.47446  17.04079  Biso   1.000  Sb
  Sb2      1.0000 11.90588  11.45644  20.98713  Biso   1.000  Sb
  Sb3      1.0000 14.74061  12.43842  13.29459  Biso   1.000  Sb
  Sb4      1.0000 5.66947  6.54654  14.73936  Biso   1.000  Sb
  Sb5      1.0000 8.50420  7.52852  15.17972  Biso   1.000  Sb
  Sb6      1.0000 11.33893  8.51050  13.72088  Biso   1.000  Sb
  Sb7      1.0000 14.17367  9.49248  17.68128  Biso   1.000  Sb
  Sb8      1.0000 17.00840  10.47446  15.01559  Biso   1.000  Sb
  Sb9      1.0000 19.84313  11.45644  20.77433  Biso   1.000  Sb
  Sb10     1.0000 22.67787  12.43842  13.87707  Biso   1.000  Sb
  Sb11     1.0000 5.10252  3.60060  17.16068  Biso   1.000  Sb
  Sb12     1.0000 7.93725  4.58258  20.03122  Biso   1.000  Sb
  Sb13     1.0000 10.77199  5.56456  17.48367  Biso   1.000  Sb
  Sb14     1.0000 13.60672  6.54654  13.68396  Biso   1.000  Sb
  Sb15     1.0000 16.44145  7.52852  14.36953  Biso   1.000  Sb
  Sb16     1.0000 19.27619  8.51050  15.48393  Biso   1.000  Sb
  Sb17     1.0000 6.23641  9.49248  17.03348  Biso   1.000  Sb
  Sb18     1.0000 9.63809  13.42040  15.25469  Biso   1.000  Sb
  Sb19     1.0000 4.53557  0.65465  15.67816  Biso   1.000  Sb
  Sb20     1.0000 7.37031  1.63663  14.07589  Biso   1.000  Sb
  Sb21     1.0000 10.20504  2.61861  17.54762  Biso   1.000  Sb
  Sb22     1.0000 13.03977  3.60060  15.24151  Biso   1.000  Sb
  Sb23     1.0000 15.87451  4.58258  20.26266  Biso   1.000  Sb
  Sb24     1.0000 18.70924  5.56456  13.08038  Biso   1.000  Sb
  Sb25     1.0000 17.57535  13.42040  13.81897  Biso   1.000  Sb
  Sb26     1.0000 12.47283  0.65465  13.30748  Biso   1.000  Sb
  Sb27     1.0000 15.30756  1.63663  14.61487  Biso   1.000  Sb
  Sb28     1.0000 2.26779  2.61861  16.10033  Biso   1.000  Sb
  Sb29     1.0000 10.77199  10.14713  15.31162  Biso   1.000  Sb
  Sb30     1.0000 13.60672  11.12911  15.63326  Biso   1.000  Sb
  Sb31     1.0000 16.44145  12.11109  19.47817  Biso   1.000  Sb
  Sb32     1.0000 7.37031  6.21921  17.56895  Biso   1.000  Sb
  Sb33     1.0000 10.20504  7.20119  19.18775  Biso   1.000  Sb
  Sb34     1.0000 13.03977  8.18317  19.25053  Biso   1.000  Sb
  Sb35     1.0000 15.87451  9.16515  20.12321  Biso   1.000  Sb
  Sb36     1.0000 18.70924  10.14713  17.30626  Biso   1.000  Sb
  Sb37     1.0000 21.54397  11.12911  18.77901  Biso   1.000  Sb
  Sb38     1.0000 8.50420  12.11109  19.23616  Biso   1.000  Sb
  Sb39     1.0000 6.80336  3.27327  15.60938  Biso   1.000  Sb
  Sb40     1.0000 9.63809  4.25525  14.94656  Biso   1.000  Sb
  Sb41     1.0000 12.47283  5.23723  19.58349  Biso   1.000  Sb
  Sb42     1.0000 15.30756  6.21921  17.75561  Biso   1.000  Sb
  Sb43     1.0000 18.14229  7.20119  19.11086  Biso   1.000  Sb
  Sb44     1.0000 5.10252  8.18317  18.53459  Biso   1.000  Sb
  Sb45     1.0000 7.93725  9.16515  20.19894  Biso   1.000  Sb
  Sb46     1.0000 11.33893  13.09307  17.31225  Biso   1.000  Sb
  Sb47     1.0000 6.23641  0.32733  18.13630  Biso   1.000  Sb
  Sb48     1.0000 9.07115  1.30931  19.14612  Biso   1.000  Sb
  Sb49     1.0000 11.90588  2.29129  20.07419  Biso   1.000  Sb
  Sb50     1.0000 14.74061  3.27327  17.02697  Biso   1.000  Sb
  Sb51     1.0000 17.57535  4.25525  17.97851  Biso   1.000  Sb
  Sb52     1.0000 4.53557  5.23723  19.25407  Biso   1.000  Sb
  Sb53     1.0000 19.27619  13.09307  17.62250  Biso   1.000  Sb
  Sb54     1.0000 14.17367  0.32733  18.99190  Biso   1.000  Sb
  Sb55     1.0000 1.13389  1.30931  19.03148  Biso   1.000  Sb
  Sb56     1.0000 3.96863  2.29129  19.98990  Biso   1.000  Sb
  Sb57     1.0000 6.14360  4.49961  13.22351  Biso   1.000  Sb
  Sb58     1.0000 7.43167  7.54479  13.09073  Biso   1.000  Sb
  Sb59     1.0000 7.75227  12.19473  15.97829  Biso   1.000  Sb
  Sb60     1.0000 11.40005  10.27667  18.82357  Biso   1.000  Sb
  Sb61     1.0000 2.07259  -2.00289  13.71098  Biso   1.000  Sb
  Sb62     1.0000 5.04012  2.38206  14.43552  Biso   1.000  Sb
  Sb63     1.0000 3.68343  5.16003  15.57181  Biso   1.000  Sb
  Sb64     1.0000 10.94723  6.57868  15.49262  Biso   1.000  Sb
  Sb65     1.0000 13.46672  11.83276  10.85093  Biso   1.000  Sb
  Sb66     1.0000 12.43569  12.96860  13.83693  Biso   1.000  Sb
  Sb67     1.0000 10.94497  13.75419  10.86291  Biso   1.000  Sb
  Sb68     1.0000 9.34027  5.96904  12.58028  Biso   1.000  Sb
  Sb69     1.0000 7.60180  5.41954  15.46700  Biso   1.000  Sb
  Sb70     1.0000 7.22007  6.69499  10.48851  Biso   1.000  Sb
  Sb71     1.0000 12.09092  4.44258  13.00248  Biso   1.000  Sb
  Sb72     1.0000 17.89929  7.84947  12.36924  Biso   1.000  Sb
  Sb73     1.0000 18.89292  12.44714  15.38274  Biso   1.000  Sb
  Sb74     1.0000 21.40440  12.66342  17.10533  Biso   1.000  Sb
  Sb75     1.0000 8.89860  -2.88864  12.57655  Biso   1.000  Sb
  Sb76     1.0000 14.71292  0.30565  12.32549  Biso   1.000  Sb
  Sb77     1.0000 14.50766  5.52638  15.73158  Biso   1.000  Sb
  Sb78     1.0000 17.47432  6.31984  16.85706  Biso   1.000  Sb
  Sb79     1.0000 22.81993  11.85105  11.48821  Biso   1.000  Sb
  Sb80     1.0000 20.58811  10.76843  15.65106  Biso   1.000  Sb
  Sb81     1.0000 2.02398  12.79349  10.09684  Biso   1.000  Sb
  Sb82     1.0000 16.96960  5.18113  11.30408  Biso   1.000  Sb
  Sb83     1.0000 16.63007  4.31976  14.84227  Biso   1.000  Sb
  Sb84     1.0000 -1.99469  5.94331  11.30343  Biso   1.000  Sb
  Sb85     1.0000 7.31985  9.78444  14.98148  Biso   1.000  Sb
  Sb86     1.0000 11.06175  10.89062  11.54725  Biso   1.000  Sb
  Sb87     1.0000 10.33812  11.75331  9.01054  Biso   1.000  Sb
  Sb88     1.0000 13.85334  16.87307  11.12541  Biso   1.000  Sb
  Sb89     1.0000 0.36575  1.15079  16.84860  Biso   1.000  Sb
  Sb90     1.0000 8.57411  3.51420  12.96631  Biso   1.000  Sb
  Sb91     1.0000 7.09839  4.86542  8.80593  Biso   1.000  Sb
  Sb92     1.0000 9.24628  9.20629  13.09662  Biso   1.000  Sb
  Sb93     1.0000 16.06353  7.45304  10.62493  Biso   1.000  Sb
  Sb94     1.0000 14.90010  8.52165  12.82096  Biso   1.000  Sb
  Sb95     1.0000 13.02263  10.09922  13.28573  Biso   1.000  Sb
  Sb96     1.0000 12.78317  0.45293  10.76079  Biso   1.000  Sb
  Sb97     1.0000 9.01241  0.53758  11.85522  Biso   1.000  Sb
  Sb98     1.0000 8.57301  2.59958  10.78911  Biso   1.000  Sb
  Sb99     1.0000 12.97639  8.69063  15.90211  Biso   1.000  Sb
  Sb100    1.0000 18.95523  9.87851  13.48169  Biso   1.000  Sb
  Sb101    1.0000 18.69226  12.77056  7.55842  Biso   1.000  Sb
  Sb102    1.0000 22.99718  17.23621  10.62736  Biso   1.000  Sb
  Sb103    1.0000 11.01185  2.41911  15.32722  Biso   1.000  Sb
  Sb104    1.0000 14.43915  3.44538  13.25283  Biso   1.000  Sb
  Sb105    1.0000 14.11829  5.69435  8.57596  Biso   1.000  Sb
  Sb106    1.0000 20.24238  11.00057  10.74173  Biso   1.000  Sb
  Sb107    1.0000 25.42994  7.70511  10.68269  Biso   1.000  Sb
  Sb108    1.0000 4.66134  7.24659  11.84578  Biso   1.000  Sb
  Sb109    1.0000 5.32663  9.00944  13.72736  Biso   1.000  Sb
  Sb110    1.0000 21.76479  0.58011  11.86300  Biso   1.000  Sb
  Sb111    1.0000 2.77374  1.83617  13.77384  Biso   1.000  Sb
  Sb112    1.0000 0.92106  1.94781  11.99330  Biso   1.000  Sb
